test/data/pti/vsc-hvdc_test.raw
0,    100.00, 33, 0, 1, 60.00
A Frankenstein network for testing voltage source converters
developed by Carleton Coffrin (cjc@lanl.gov) and David Fobes (dfobes@lanl.gov) April 2018
1001,'FAV SPOT 01',  230.0000, 3, 101, 201, 301,1.05000000,   2.000000, 1.10000, 0.90000, 1.10000, 0.90000
1002,'FAV SPOT 02',   87.0000, 1, 101, 201, 301,1.02500000,   0.000000, 1.10000, 0.90000, 1.10000, 0.90000
0 / END OF BUS DATA, BEGIN LOAD DATA
1002,'Z0',1, 101, 201,    20.000,    10.000,     0.000,     0.000,     0.000,     0.000, 301,1
0 / END OF LOAD DATA, BEGIN FIXED SHUNT DATA
0 / END OF FIXED SHUNT DATA, BEGIN GENERATOR DATA
1001,'1 ',    20.000,   -25.000,   250.000,  -250.000,1.05000,    0,   300.000,   0.00000,   0.25000,   0.00000,   0.00000,1.00000,1,  100.0,   200.000,  -200.000, 301,1.0000,   0,1.0000,   0,1.0000,   0,1.0000,0, 1.0000
0 / END OF GENERATOR DATA, BEGIN BRANCH DATA
1002,1001,'1 ',1.50000E-3,1.25000E-2,2.50000E-1,1000.00,1250.00,1000.00,  0.00000,  0.00000,  0.00000,  0.00000,1,1,  25.0, 301,1.0000,   0,1.0000,   0,1.0000,   0,1.0000
0 / END OF BRANCH DATA, BEGIN TRANSFORMER DATA
0 / END OF TRANSFORMER DATA, BEGIN AREA DATA
0 / END OF AREA DATA, BEGIN TWO-TERMINAL DC DATA
0 / END OF TWO-TERMINAL DC DATA, BEGIN VOLTAGE SOURCE CONVERTER DATA
'VSCDC Ln 1 ', 1, 0.0000, 1, 1.0, 0, 1.0, 0, 1.0, 0, 1.0
  1001, 1, 1, 150.000,1.05000,1000.0000,1.5000,  0.00, 250.00, 1000.00,0.5000, 100.00,-100.00,1001,100.00
  1002, 2, 1, -20.000,1.02500,1000.0000,1.5000,  0.00, 250.00, 1000.00,0.5000, 100.00,-100.00,1002,100.00
0 / END OF VOLTAGE SOURCE CONVERTER DATA, BEGIN IMPEDANCE CORRECTION DATA
0 / END OF IMPEDANCE CORRECTION DATA, BEGIN MULTI-TERMINAL DC DATA
0 / END OF MULTI-TERMINAL DC DATA, BEGIN MULTI-SECTION LINE DATA
0 / END OF MULTI-SECTION LINE DATA, BEGIN ZONE DATA
0 / END OF ZONE DATA, BEGIN INTER-AREA TRANSFER DATA
0 / END OF INTER-AREA TRANSFER DATA, BEGIN OWNER DATA
0 / END OF OWNER DATA, BEGIN FACTS CONTROL DEVICE DATA
0 / END OF FACTS CONTROL DEVICE DATA, BEGIN SWITCHED SHUNT DATA
0 /END OF SWITCHED SHUNT DATA, BEGIN GNE DEVICE DATA
0 /END OF GNE DEVICE DATA
Q
